Version 4
SHEET 1 880 680
WIRE -160 -512 -320 -512
WIRE -400 -480 -400 -512
WIRE -400 -480 -576 -480
WIRE -848 -432 -960 -432
WIRE -640 -432 -768 -432
WIRE -160 -400 -160 -512
WIRE -960 -304 -960 -432
WIRE -960 -176 -960 -224
WIRE -576 -176 -576 -384
WIRE -576 -176 -960 -176
WIRE -160 -176 -160 -320
WIRE -160 -176 -576 -176
WIRE -576 -128 -576 -176
FLAG -576 -128 0
SYMBOL npn -640 -480 R0
SYMATTR InstName Q1
SYMATTR Value BC547B
SYMBOL voltage -960 -320 R0
SYMATTR InstName VBE
SYMBOL voltage -160 -416 R0
WINDOW 123 0 0 Left 0
WINDOW 39 93 48 Left 2
SYMATTR InstName VCE
SYMATTR Value 5
SYMATTR SpiceLine Rser=0.001
SYMBOL res -752 -448 R90
WINDOW 0 0 56 VBottom 2
WINDOW 3 32 56 VTop 2
SYMATTR InstName R1
SYMATTR Value 1k
SYMBOL res -304 -528 R90
WINDOW 0 0 56 VBottom 2
WINDOW 3 32 56 VTop 2
SYMATTR InstName R2
SYMATTR Value 1k
TEXT -994 -104 Left 2 !.dc VBE 0 1 0.1 VCE 0 5 1
